Version 4
SHEET 1 4080 872
WIRE 1632 -80 1552 -80
WIRE 1776 -80 1696 -80
WIRE 2096 -80 2096 -96
WIRE 2256 -16 2256 -96
WIRE 1552 32 1552 -80
WIRE 1616 32 1552 32
WIRE 1776 32 1776 -80
WIRE 1776 32 1696 32
WIRE 1968 32 1920 32
WIRE 2096 32 2096 0
WIRE 2096 32 2032 32
WIRE 2192 32 2096 32
WIRE 1200 96 1200 80
WIRE 2096 112 2096 32
WIRE 1056 160 1056 144
WIRE 560 176 560 128
WIRE 816 176 816 128
WIRE 1680 176 1680 160
WIRE 1200 192 1200 176
WIRE 1312 192 1200 192
WIRE 1408 192 1376 192
WIRE 1552 192 1552 32
WIRE 1552 192 1488 192
WIRE 1648 192 1552 192
WIRE 1776 208 1776 32
WIRE 1776 208 1712 208
WIRE 1920 208 1920 32
WIRE 1920 208 1776 208
WIRE 2256 208 2256 80
WIRE 2384 208 2256 208
WIRE 2448 208 2384 208
WIRE 1200 224 1200 192
WIRE 1648 224 1600 224
WIRE 2096 224 2096 176
WIRE 2384 240 2384 208
WIRE 1600 256 1600 224
WIRE 1680 256 1680 240
WIRE 816 272 816 256
WIRE 912 272 816 272
WIRE 1056 272 1056 240
WIRE 1056 272 976 272
WIRE 1120 272 1056 272
WIRE 1136 272 1120 272
WIRE 1056 288 1056 272
WIRE 560 304 560 256
WIRE 816 304 816 272
WIRE 2256 304 2256 208
WIRE 1200 336 1200 320
WIRE 1424 336 1200 336
WIRE 1200 352 1200 336
WIRE 1920 352 1920 208
WIRE 1984 352 1920 352
WIRE 2096 352 2096 288
WIRE 2096 352 2048 352
WIRE 2192 352 2096 352
WIRE 2384 352 2384 320
WIRE 1056 384 1056 368
WIRE 2096 400 2096 352
WIRE 560 432 560 400
WIRE 816 432 816 400
WIRE 1120 464 1120 272
WIRE 1200 464 1200 432
WIRE 560 528 560 512
WIRE 672 528 560 528
WIRE 816 528 816 512
WIRE 816 528 672 528
WIRE 2096 544 2096 480
WIRE 2256 544 2256 400
WIRE 2256 544 2096 544
WIRE 2256 560 2256 544
WIRE 672 576 672 528
WIRE 672 736 672 656
FLAG 656 -176 0
FLAG 768 -176 0
FLAG 656 -256 Vcc
IOPIN 656 -256 In
FLAG 768 -256 Vee
IOPIN 768 -256 In
FLAG 672 736 Vee
IOPIN 672 736 In
FLAG 816 128 Vcc
IOPIN 816 128 In
FLAG 1600 256 0
FLAG 1056 144 Vcc
IOPIN 1056 144 In
FLAG 1200 80 Vcc
IOPIN 1200 80 In
FLAG 560 128 Vcc
IOPIN 560 128 In
FLAG 880 -176 0
FLAG 880 -256 Vin
IOPIN 880 -256 In
FLAG 496 352 Vin
IOPIN 496 352 In
FLAG 544 -160 0
FLAG 544 -240 Vin_inv
IOPIN 544 -240 In
FLAG 1056 384 Vee
IOPIN 1056 384 In
FLAG 1200 464 Vee
IOPIN 1200 464 In
FLAG 2448 208 Vout
IOPIN 2448 208 Out
FLAG 2256 -96 Vcc
IOPIN 2256 -96 In
FLAG 2096 -96 Vcc
IOPIN 2096 -96 In
FLAG 2384 352 0
FLAG 2256 560 Vee
IOPIN 2256 560 In
FLAG 1680 336 0
FLAG 1680 80 0
FLAG 880 352 0
DATAFLAG 816 272 ""
DATAFLAG 672 528 ""
DATAFLAG 2112 32 ""
DATAFLAG 2112 352 ""
DATAFLAG 2256 208 ""
DATAFLAG 1200 208 ""
DATAFLAG 1120 448 ""
DATAFLAG 1376 336 ""
SYMBOL npn 496 304 R0
SYMATTR InstName Q1
SYMATTR Value BC547B
SYMBOL npn 880 304 M0
SYMATTR InstName Q2
SYMATTR Value BC547B
SYMBOL voltage 656 -272 R0
WINDOW 123 0 0 Left 0
WINDOW 39 0 0 Left 0
SYMATTR InstName V1
SYMATTR Value 5
SYMBOL voltage 768 -272 R0
WINDOW 123 0 0 Left 0
WINDOW 39 0 0 Left 0
SYMATTR InstName V2
SYMATTR Value -5
SYMBOL res 656 560 R0
SYMATTR InstName R1
SYMATTR Value 5k
SYMBOL res 800 160 R0
SYMATTR InstName Rc2
SYMATTR Value 11k
SYMBOL cap 976 256 R90
WINDOW 0 0 32 VBottom 2
WINDOW 3 32 32 VTop 2
SYMATTR InstName C1
SYMATTR Value 10µ
SYMBOL res 1040 272 R0
SYMATTR InstName R2
SYMATTR Value 32k
SYMBOL res 1040 144 R0
SYMATTR InstName R3
SYMATTR Value 300k
SYMBOL res 1184 80 R0
SYMATTR InstName Rc3
SYMATTR Value 18k
SYMBOL npn 1136 224 R0
SYMATTR InstName Q3
SYMATTR Value BC547B
SYMBOL OpAmps\\opamp2 1680 144 R0
SYMATTR InstName U1
SYMATTR Value UA741
SYMBOL cap 1696 -96 R90
WINDOW 0 0 32 VBottom 2
WINDOW 3 32 32 VTop 2
SYMATTR InstName C3
SYMATTR Value 4p
SYMBOL res 1712 16 R90
WINDOW 0 0 56 VBottom 2
WINDOW 3 32 56 VTop 2
SYMATTR InstName R4
SYMATTR Value 2Meg
SYMBOL res 1504 176 R90
WINDOW 0 0 56 VBottom 2
WINDOW 3 32 56 VTop 2
SYMATTR InstName R5
SYMATTR Value 2Meg
SYMBOL cap 1376 176 R90
WINDOW 0 0 32 VBottom 2
WINDOW 3 32 32 VTop 2
SYMATTR InstName C4
SYMATTR Value 4n
SYMBOL voltage 880 -272 R0
WINDOW 123 24 44 Left 2
WINDOW 39 0 0 Left 0
SYMATTR Value2 AC 1
SYMATTR InstName V4
SYMATTR Value SINE(0 10m 5k)
SYMBOL res 544 160 R0
SYMATTR InstName Rc1
SYMATTR Value 11k
SYMBOL voltage 544 -256 R0
WINDOW 3 -99 138 Left 2
WINDOW 123 0 0 Left 0
WINDOW 39 0 0 Left 0
SYMATTR Value SINE(0 10m 20k 0 0 180)
SYMATTR InstName V5
SYMBOL diode 2080 112 R0
SYMATTR InstName D1
SYMATTR Value 1N4148
SYMBOL diode 2080 224 R0
SYMATTR InstName D2
SYMATTR Value 1N4148
SYMBOL res 2080 -96 R0
SYMATTR InstName R7
SYMATTR Value 500
SYMBOL res 2080 384 R0
SYMATTR InstName R8
SYMATTR Value 500
SYMBOL res 2368 224 R0
SYMATTR InstName Load
SYMATTR Value 10
SYMBOL voltage 1680 352 R180
WINDOW 0 24 96 Left 2
WINDOW 3 24 16 Left 2
WINDOW 123 0 0 Left 0
WINDOW 39 0 0 Left 0
SYMATTR InstName V3
SYMATTR Value 12
SYMBOL voltage 1680 176 R180
WINDOW 0 24 96 Left 2
WINDOW 3 24 16 Left 2
WINDOW 123 0 0 Left 0
WINDOW 39 0 0 Left 0
SYMATTR InstName V6
SYMATTR Value 12
SYMBOL cap 2048 336 R90
WINDOW 0 0 32 VBottom 2
WINDOW 3 32 32 VTop 2
SYMATTR InstName C2
SYMATTR Value 10µ
SYMBOL cap 2032 16 R90
WINDOW 0 0 32 VBottom 2
WINDOW 3 32 32 VTop 2
SYMATTR InstName C6
SYMATTR Value 10µ
SYMBOL npn 2192 -16 R0
SYMATTR InstName Q4
SYMATTR Value tip31a
SYMBOL pnp 2192 400 M180
SYMATTR InstName Q5
SYMATTR Value tip32
SYMBOL res 1184 336 R0
SYMATTR InstName R6
SYMATTR Value 1.2k
SYMBOL res 800 416 R0
SYMATTR InstName R10
SYMATTR Value 60
SYMBOL res 544 416 R0
SYMATTR InstName R11
SYMATTR Value 60
TEXT 1104 -120 Left 2 !.include UA741.301
TEXT 1120 -168 Left 2 !.four 1KHz 10 10 V(Vout)
TEXT 1112 -208 Left 2 !.tran 0.5m
TEXT 1112 -88 Left 2 !.include tip31a.lib
TEXT 1112 -64 Left 2 !.include tip32a.lib
TEXT 1120 -256 Left 2 ;.ac dec 10 10m 100k
