Version 4
SHEET 1 4080 872
WIRE 2016 -96 2016 -112
WIRE 1616 -80 1536 -80
WIRE 1760 -80 1680 -80
WIRE 2176 -32 2176 -112
WIRE 1888 16 1840 16
WIRE 2016 16 2016 -16
WIRE 2016 16 1952 16
WIRE 2112 16 2016 16
WIRE 1536 32 1536 -80
WIRE 1600 32 1536 32
WIRE 1760 32 1760 -80
WIRE 1760 32 1680 32
WIRE 1200 96 1200 80
WIRE 2016 96 2016 16
WIRE 1056 160 1056 144
WIRE 560 176 560 128
WIRE 816 176 816 128
WIRE 1664 176 1664 160
WIRE 1200 192 1200 176
WIRE 1296 192 1200 192
WIRE 1392 192 1360 192
WIRE 1536 192 1536 32
WIRE 1536 192 1472 192
WIRE 1632 192 1536 192
WIRE 2176 192 2176 64
WIRE 2304 192 2176 192
WIRE 2368 192 2304 192
WIRE 1760 208 1760 32
WIRE 1760 208 1696 208
WIRE 1840 208 1840 16
WIRE 1840 208 1760 208
WIRE 2016 208 2016 160
WIRE 1200 224 1200 192
WIRE 1632 224 1584 224
WIRE 2304 224 2304 192
WIRE 1584 256 1584 224
WIRE 1664 256 1664 240
WIRE 816 272 816 256
WIRE 912 272 816 272
WIRE 1056 272 1056 240
WIRE 1056 272 976 272
WIRE 1136 272 1056 272
WIRE 2176 288 2176 192
WIRE 560 304 560 256
WIRE 816 304 816 272
WIRE 1056 304 1056 272
WIRE 1840 336 1840 208
WIRE 1904 336 1840 336
WIRE 2016 336 2016 272
WIRE 2016 336 1968 336
WIRE 2112 336 2016 336
WIRE 2304 336 2304 304
WIRE 496 352 416 352
WIRE 912 352 880 352
WIRE 2016 384 2016 336
WIRE 1056 400 1056 384
WIRE 1200 416 1200 320
WIRE 1312 416 1200 416
WIRE 560 432 560 400
WIRE 816 432 816 400
WIRE 1200 464 1200 416
WIRE 1312 480 1312 416
WIRE 560 528 560 512
WIRE 672 528 560 528
WIRE 768 528 672 528
WIRE 816 528 816 512
WIRE 816 528 768 528
WIRE 2016 528 2016 464
WIRE 2176 528 2176 384
WIRE 2176 528 2016 528
WIRE 2176 544 2176 528
WIRE 1200 560 1200 544
WIRE 1312 560 1312 544
WIRE 1312 560 1200 560
WIRE 672 576 672 528
WIRE 768 576 768 528
WIRE 1200 592 1200 560
WIRE 672 688 672 656
WIRE 768 688 768 640
WIRE 768 688 672 688
WIRE 672 736 672 688
FLAG 656 -176 0
FLAG 768 -176 0
FLAG 656 -256 Vcc
IOPIN 656 -256 In
FLAG 768 -256 Vee
IOPIN 768 -256 In
FLAG 672 736 Vee
IOPIN 672 736 In
FLAG 816 128 Vcc
IOPIN 816 128 In
FLAG 1584 256 0
FLAG 1056 144 Vcc
IOPIN 1056 144 In
FLAG 1200 80 Vcc
IOPIN 1200 80 In
FLAG 560 128 Vcc
IOPIN 560 128 In
FLAG 880 -176 0
FLAG 880 -256 Vin
IOPIN 880 -256 In
FLAG 416 352 Vin
IOPIN 416 352 In
FLAG 544 -160 0
FLAG 544 -240 Vin_inv
IOPIN 544 -240 In
FLAG 912 352 Vin_inv
IOPIN 912 352 In
FLAG 1056 400 Vee
IOPIN 1056 400 In
FLAG 1200 592 Vee
IOPIN 1200 592 In
FLAG 2368 192 Vout
IOPIN 2368 192 Out
FLAG 2176 -112 Vcc
IOPIN 2176 -112 In
FLAG 2016 -112 Vcc
IOPIN 2016 -112 In
FLAG 2304 336 0
FLAG 2176 544 Vee
IOPIN 2176 544 In
FLAG 1664 336 0
FLAG 1664 80 0
DATAFLAG 1104 272 ""
DATAFLAG 1200 400 ""
DATAFLAG 816 272 ""
DATAFLAG 672 528 ""
DATAFLAG 2032 16 ""
DATAFLAG 2032 336 ""
SYMBOL npn 496 304 R0
SYMATTR InstName Q1
SYMATTR Value BC547B
SYMBOL npn 880 304 M0
SYMATTR InstName Q2
SYMATTR Value BC547B
SYMBOL voltage 656 -272 R0
WINDOW 123 0 0 Left 0
WINDOW 39 0 0 Left 0
SYMATTR InstName V1
SYMATTR Value 5
SYMBOL voltage 768 -272 R0
WINDOW 123 0 0 Left 0
WINDOW 39 0 0 Left 0
SYMATTR InstName V2
SYMATTR Value -5
SYMBOL res 656 560 R0
SYMATTR InstName R1
SYMATTR Value 5k
SYMBOL res 800 160 R0
SYMATTR InstName Rc1
SYMATTR Value 11k
SYMBOL cap 976 256 R90
WINDOW 0 0 32 VBottom 2
WINDOW 3 32 32 VTop 2
SYMATTR InstName C1
SYMATTR Value 10µ
SYMBOL res 1040 288 R0
SYMATTR InstName R2
SYMATTR Value 15k
SYMBOL res 1040 144 R0
SYMATTR InstName R3
SYMATTR Value 160k
SYMBOL res 1184 80 R0
SYMATTR InstName Rc2
SYMATTR Value 20k
SYMBOL res 1184 448 R0
SYMATTR InstName Re3
SYMATTR Value 1k
SYMBOL npn 1136 224 R0
SYMATTR InstName Q3
SYMATTR Value BC547B
SYMBOL OpAmps\\opamp2 1664 144 R0
SYMATTR InstName U1
SYMATTR Value UA741
SYMBOL cap 1680 -96 R90
WINDOW 0 0 32 VBottom 2
WINDOW 3 32 32 VTop 2
SYMATTR InstName C3
SYMATTR Value 8p
SYMBOL res 1696 16 R90
WINDOW 0 0 56 VBottom 2
WINDOW 3 32 56 VTop 2
SYMATTR InstName R4
SYMATTR Value 1Meg
SYMBOL res 1488 176 R90
WINDOW 0 0 56 VBottom 2
WINDOW 3 32 56 VTop 2
SYMATTR InstName R5
SYMATTR Value 1Meg
SYMBOL cap 1360 176 R90
WINDOW 0 0 32 VBottom 2
WINDOW 3 32 32 VTop 2
SYMATTR InstName C4
SYMATTR Value 8n
SYMBOL voltage 880 -272 R0
WINDOW 123 24 44 Left 2
WINDOW 39 0 0 Left 0
SYMATTR Value2 AC 1
SYMATTR InstName V4
SYMATTR Value SINE(0 10m 1k)
SYMBOL res 544 160 R0
SYMATTR InstName R6
SYMATTR Value 11k
SYMBOL res 544 416 R0
SYMATTR InstName Re1
SYMATTR Value 200
SYMBOL res 800 416 R0
SYMATTR InstName Re2
SYMATTR Value 200
SYMBOL voltage 544 -256 R0
WINDOW 3 -99 138 Left 2
WINDOW 123 0 0 Left 0
WINDOW 39 0 0 Left 0
SYMATTR Value SINE(0 10m 1k 0 0 180)
SYMATTR InstName V5
SYMBOL cap 752 576 R0
SYMATTR InstName C7
SYMATTR Value 10n
SYMBOL cap 1296 480 R0
SYMATTR InstName C9
SYMATTR Value 10n
SYMBOL npn 2112 -32 R0
SYMATTR InstName Q4
SYMATTR Value BC547B
SYMBOL pnp 2112 384 M180
SYMATTR InstName Q5
SYMATTR Value BC557B
SYMBOL diode 2000 96 R0
SYMATTR InstName D1
SYMATTR Value 1N4148
SYMBOL diode 2000 208 R0
SYMATTR InstName D2
SYMATTR Value 1N4148
SYMBOL res 2000 -112 R0
SYMATTR InstName R7
SYMATTR Value 500
SYMBOL res 2000 368 R0
SYMATTR InstName R8
SYMATTR Value 500
SYMBOL res 2288 208 R0
SYMATTR InstName Load
SYMATTR Value 10
SYMBOL voltage 1664 352 R180
WINDOW 0 24 96 Left 2
WINDOW 3 24 16 Left 2
WINDOW 123 0 0 Left 0
WINDOW 39 0 0 Left 0
SYMATTR InstName V3
SYMATTR Value 12
SYMBOL voltage 1664 176 R180
WINDOW 0 24 96 Left 2
WINDOW 3 24 16 Left 2
WINDOW 123 0 0 Left 0
WINDOW 39 0 0 Left 0
SYMATTR InstName V6
SYMATTR Value 12
SYMBOL cap 1968 320 R90
WINDOW 0 0 32 VBottom 2
WINDOW 3 32 32 VTop 2
SYMATTR InstName C2
SYMATTR Value 100µ
SYMBOL cap 1952 0 R90
WINDOW 0 0 32 VBottom 2
WINDOW 3 32 32 VTop 2
SYMATTR InstName C6
SYMATTR Value 100µ
TEXT 1104 -160 Left 2 !.tran 2m
TEXT 1104 -120 Left 2 !.include UA741.301
