Version 4
SHEET 1 3620 872
WIRE 3232 -32 3152 -32
WIRE 3376 -32 3296 -32
WIRE 1472 80 1472 64
WIRE 3152 80 3152 -32
WIRE 3216 80 3152 80
WIRE 3376 80 3376 -32
WIRE 3376 80 3296 80
WIRE 1328 128 1328 96
WIRE 560 176 560 128
WIRE 816 176 816 128
WIRE 2784 176 2416 176
WIRE 1472 192 1472 160
WIRE 1664 192 1472 192
WIRE 1472 224 1472 192
WIRE 3280 224 3280 208
WIRE 2784 240 2784 176
WIRE 2880 240 2784 240
WIRE 3008 240 2944 240
WIRE 3152 240 3152 80
WIRE 3152 240 3088 240
WIRE 3248 240 3152 240
WIRE 3376 256 3376 80
WIRE 3376 256 3312 256
WIRE 3424 256 3376 256
WIRE 3616 256 3488 256
WIRE 816 272 816 256
WIRE 960 272 816 272
WIRE 1216 272 1024 272
WIRE 1328 272 1328 208
WIRE 1328 272 1280 272
WIRE 1408 272 1328 272
WIRE 3248 272 3200 272
WIRE 560 304 560 256
WIRE 816 304 816 272
WIRE 3200 304 3200 272
WIRE 3280 304 3280 288
WIRE 1328 320 1328 272
WIRE 496 352 416 352
WIRE 912 352 880 352
WIRE 1472 416 1472 320
WIRE 1584 416 1472 416
WIRE 560 432 560 400
WIRE 816 432 816 400
WIRE 1328 464 1328 400
WIRE 1472 464 1472 416
WIRE 1584 480 1584 416
WIRE 560 528 560 512
WIRE 672 528 560 528
WIRE 768 528 672 528
WIRE 816 528 816 512
WIRE 816 528 768 528
WIRE 1472 560 1472 544
WIRE 1584 560 1584 544
WIRE 1584 560 1472 560
WIRE 672 576 672 528
WIRE 768 576 768 528
WIRE 1472 592 1472 560
WIRE 672 688 672 656
WIRE 768 688 768 640
WIRE 768 688 672 688
WIRE 672 736 672 688
FLAG 48 256 0
FLAG 160 256 0
FLAG 48 176 Vcc
IOPIN 48 176 In
FLAG 160 176 Vee
IOPIN 160 176 In
FLAG 672 736 Vee
IOPIN 672 736 In
FLAG 816 128 Vcc
IOPIN 816 128 In
FLAG 1328 464 0
FLAG 1472 592 0
FLAG 3200 304 0
FLAG 3280 208 Vcc
IOPIN 3280 208 In
FLAG 3280 304 Vee
IOPIN 3280 304 In
FLAG 1328 96 Vcc
IOPIN 1328 96 In
FLAG 1472 64 Vcc
IOPIN 1472 64 In
FLAG 560 128 Vcc
IOPIN 560 128 In
FLAG 272 256 0
FLAG 272 176 Vin
IOPIN 272 176 In
FLAG 416 352 Vin
IOPIN 416 352 In
FLAG -64 272 0
FLAG -64 192 Vin_inv
IOPIN -64 192 In
FLAG 912 352 Vin_inv
IOPIN 912 352 In
DATAFLAG 1568 192 ""
DATAFLAG 1376 272 ""
DATAFLAG 1472 400 ""
DATAFLAG 816 272 ""
DATAFLAG 672 528 ""
SYMBOL npn 496 304 R0
SYMATTR InstName Q1
SYMATTR Value BC547B
SYMBOL npn 880 304 M0
SYMATTR InstName Q2
SYMATTR Value BC547B
SYMBOL voltage 48 160 R0
WINDOW 123 0 0 Left 0
WINDOW 39 0 0 Left 0
SYMATTR InstName V1
SYMATTR Value 5
SYMBOL voltage 160 160 R0
WINDOW 123 0 0 Left 0
WINDOW 39 0 0 Left 0
SYMATTR InstName V2
SYMATTR Value -5
SYMBOL res 656 560 R0
SYMATTR InstName R1
SYMATTR Value 5k
SYMBOL res 800 160 R0
SYMATTR InstName Rc1
SYMATTR Value 11.5k
SYMBOL cap 1024 256 R90
WINDOW 0 0 32 VBottom 2
WINDOW 3 32 32 VTop 2
SYMATTR InstName C1
SYMATTR Value 10µ
SYMBOL res 1312 304 R0
SYMATTR InstName R2
SYMATTR Value 60k
SYMBOL res 1312 112 R0
SYMATTR InstName R3
SYMATTR Value 140k
SYMBOL res 1456 64 R0
SYMATTR InstName Rc2
SYMATTR Value 10k
SYMBOL res 1456 448 R0
SYMATTR InstName Re3
SYMATTR Value 3.3k
SYMBOL npn 1408 224 R0
SYMATTR InstName Q3
SYMATTR Value BC547B
SYMBOL OpAmps\\opamp2 3280 192 R0
SYMATTR InstName U1
SYMATTR Value UA741
SYMBOL cap 3296 -48 R90
WINDOW 0 0 32 VBottom 2
WINDOW 3 32 32 VTop 2
SYMATTR InstName C3
SYMATTR Value 0.5n
SYMBOL res 3312 64 R90
WINDOW 0 0 56 VBottom 2
WINDOW 3 32 56 VTop 2
SYMATTR InstName R4
SYMATTR Value 16k
SYMBOL res 3104 224 R90
WINDOW 0 0 56 VBottom 2
WINDOW 3 32 56 VTop 2
SYMATTR InstName R5
SYMATTR Value 16k
SYMBOL cap 2944 224 R90
WINDOW 0 0 32 VBottom 2
WINDOW 3 32 32 VTop 2
SYMATTR InstName C4
SYMATTR Value 0.5µ
SYMBOL voltage 272 160 R0
WINDOW 123 24 44 Left 2
WINDOW 39 0 0 Left 0
SYMATTR Value2 AC 1
SYMATTR InstName V4
SYMATTR Value SINE(0 10m 1k)
SYMBOL cap 1280 256 R90
WINDOW 0 0 32 VBottom 2
WINDOW 3 32 32 VTop 2
SYMATTR InstName C5
SYMATTR Value 10µ
SYMBOL res 544 160 R0
SYMATTR InstName R6
SYMATTR Value 11.5k
SYMBOL cap 3488 240 R90
WINDOW 0 0 32 VBottom 2
WINDOW 3 32 32 VTop 2
SYMATTR InstName C6
SYMATTR Value 10n
SYMBOL res 544 416 R0
SYMATTR InstName Re1
SYMATTR Value 200
SYMBOL res 800 416 R0
SYMATTR InstName Re2
SYMATTR Value 200
SYMBOL voltage -64 176 R0
WINDOW 3 -99 138 Left 2
WINDOW 123 0 0 Left 0
WINDOW 39 0 0 Left 0
SYMATTR InstName V5
SYMATTR Value SINE(0 10m 1k 0 0 180)
SYMBOL cap 752 576 R0
SYMATTR InstName C7
SYMATTR Value 10n
SYMBOL cap 1728 176 R90
WINDOW 0 0 32 VBottom 2
WINDOW 3 32 32 VTop 2
SYMATTR InstName C8
SYMATTR Value 10n
SYMBOL cap 1568 480 R0
SYMATTR InstName C9
SYMATTR Value 10n
TEXT -120 400 Left 2 !.ac dec 10m 10m 100k
TEXT -120 440 Left 2 !.include UA741.301
