Version 4
SHEET 1 3604 872
WIRE 2592 -176 2480 -176
WIRE 2768 -176 2656 -176
WIRE 2480 -64 2480 -176
WIRE 2576 -64 2480 -64
WIRE 2768 -64 2768 -176
WIRE 2768 -64 2656 -64
WIRE 1680 0 1680 -32
WIRE 2640 80 2640 64
WIRE 2208 96 2128 96
WIRE 2336 96 2272 96
WIRE 2480 96 2480 -64
WIRE 2480 96 2416 96
WIRE 2608 96 2480 96
WIRE 2768 112 2768 -64
WIRE 2768 112 2672 112
WIRE 3008 112 2768 112
WIRE 1488 128 1488 96
WIRE 1680 128 1680 80
WIRE 1760 128 1680 128
WIRE 1952 128 1824 128
WIRE 2608 128 2560 128
WIRE 2560 160 2560 128
WIRE 2640 160 2640 144
WIRE 816 176 816 128
WIRE 1680 224 1680 128
WIRE 816 272 816 256
WIRE 960 272 816 272
WIRE 1088 272 1024 272
WIRE 1376 272 1312 272
WIRE 1488 272 1488 208
WIRE 1488 272 1440 272
WIRE 1616 272 1488 272
WIRE 560 304 560 128
WIRE 816 304 816 272
WIRE 1488 320 1488 272
WIRE 496 352 416 352
WIRE 912 352 880 352
WIRE 1680 352 1680 320
WIRE 912 400 912 352
WIRE 1488 464 1488 400
WIRE 1680 480 1680 432
WIRE 560 528 560 400
WIRE 576 528 560 528
WIRE 672 528 656 528
WIRE 688 528 672 528
WIRE 816 528 816 400
WIRE 816 528 768 528
WIRE 672 576 672 528
FLAG 112 16 0
FLAG 224 16 0
FLAG 112 -64 Vcc
IOPIN 112 -64 In
FLAG 224 -64 Vee
IOPIN 224 -64 In
FLAG 672 656 Vee
IOPIN 672 656 In
FLAG 816 128 Vcc
IOPIN 816 128 In
FLAG 1488 464 0
FLAG 1680 480 0
FLAG 912 400 0
FLAG 2560 160 0
FLAG 2640 64 Vcc
IOPIN 2640 64 In
FLAG 2640 160 -Vcc
IOPIN 2640 160 In
FLAG 1488 96 Vcc
IOPIN 1488 96 In
FLAG 1680 -32 Vcc
IOPIN 1680 -32 In
FLAG 560 128 Vcc
IOPIN 560 128 In
FLAG 336 16 0
FLAG 336 -64 Vin
IOPIN 336 -64 In
FLAG 416 352 Vin
IOPIN 416 352 In
FLAG 1312 272 Vin
IOPIN 1312 272 In
SYMBOL npn 496 304 R0
SYMATTR InstName Q1
SYMATTR Value BC547B
SYMBOL npn 880 304 M0
SYMATTR InstName Q2
SYMATTR Value BC547B
SYMBOL voltage 112 -80 R0
WINDOW 123 0 0 Left 0
WINDOW 39 0 0 Left 0
SYMATTR InstName V1
SYMATTR Value 5
SYMBOL voltage 224 -80 R0
WINDOW 123 0 0 Left 0
WINDOW 39 0 0 Left 0
SYMATTR InstName V2
SYMATTR Value -5
SYMBOL res 672 512 R90
WINDOW 0 0 56 VBottom 2
WINDOW 3 32 56 VTop 2
SYMATTR InstName Re1
SYMATTR Value 50
SYMBOL res 784 512 R90
WINDOW 0 0 56 VBottom 2
WINDOW 3 32 56 VTop 2
SYMATTR InstName Re2
SYMATTR Value 50
SYMBOL res 656 560 R0
SYMATTR InstName R1
SYMATTR Value 2.5k
SYMBOL res 800 160 R0
SYMATTR InstName Rc1
SYMATTR Value 5k
SYMBOL cap 1024 256 R90
WINDOW 0 0 32 VBottom 2
WINDOW 3 32 32 VTop 2
SYMATTR InstName C1
SYMATTR Value 2.217µ
SYMBOL res 1472 304 R0
SYMATTR InstName R2
SYMATTR Value 10k
SYMBOL res 1472 112 R0
SYMATTR InstName R3
SYMATTR Value 56k
SYMBOL res 1664 -16 R0
SYMATTR InstName Rc2
SYMATTR Value 10k
SYMBOL cap 1824 112 R90
WINDOW 0 0 32 VBottom 2
WINDOW 3 32 32 VTop 2
SYMATTR InstName C2
SYMATTR Value 79.5n
SYMBOL res 1664 336 R0
SYMATTR InstName Re3
SYMATTR Value 1k
SYMBOL npn 1616 224 R0
SYMATTR InstName Q3
SYMATTR Value BC547B
SYMBOL OpAmps\\opamp2 2640 48 R0
SYMATTR InstName U1
SYMATTR Value UA741
SYMBOL cap 2656 -192 R90
WINDOW 0 0 32 VBottom 2
WINDOW 3 32 32 VTop 2
SYMATTR InstName C3
SYMATTR Value 10n
SYMBOL res 2672 -80 R90
WINDOW 0 0 56 VBottom 2
WINDOW 3 32 56 VTop 2
SYMATTR InstName R4
SYMATTR Value 2.5k
SYMBOL res 2432 80 R90
WINDOW 0 0 56 VBottom 2
WINDOW 3 32 56 VTop 2
SYMATTR InstName R5
SYMATTR Value 8k
SYMBOL cap 2272 80 R90
WINDOW 0 0 32 VBottom 2
WINDOW 3 32 32 VTop 2
SYMATTR InstName C4
SYMATTR Value 100n
SYMBOL voltage 336 -80 R0
WINDOW 123 24 44 Left 2
WINDOW 39 0 0 Left 0
SYMATTR InstName V4
SYMATTR Value SINE(0 10m 1k)
SYMATTR Value2 AC 1
SYMBOL cap 1440 256 R90
WINDOW 0 0 32 VBottom 2
WINDOW 3 32 32 VTop 2
SYMATTR InstName C5
SYMATTR Value 2.27µ
TEXT 40 760 Left 2 !.tran 10m
TEXT 40 816 Left 2 !.include UA741.301
