Version 4
SHEET 1 3620 872
WIRE 2192 -80 2112 -80
WIRE 2336 -80 2256 -80
WIRE 2896 -64 2896 -112
WIRE 3056 0 3056 -80
WIRE 2112 32 2112 -80
WIRE 2176 32 2112 32
WIRE 2336 32 2336 -80
WIRE 2336 32 2256 32
WIRE 2768 48 2704 48
WIRE 2896 48 2896 16
WIRE 2896 48 2832 48
WIRE 2992 48 2896 48
WIRE 1472 80 1472 64
WIRE 1328 128 1328 96
WIRE 2896 128 2896 48
WIRE 560 176 560 128
WIRE 816 176 816 128
WIRE 2240 176 2240 160
WIRE 1472 192 1472 160
WIRE 1840 192 1472 192
WIRE 1856 192 1840 192
WIRE 1968 192 1904 192
WIRE 2112 192 2112 32
WIRE 2112 192 2048 192
WIRE 2208 192 2112 192
WIRE 2336 208 2336 32
WIRE 2336 208 2272 208
WIRE 2384 208 2336 208
WIRE 2704 208 2704 48
WIRE 2704 208 2608 208
WIRE 1472 224 1472 192
WIRE 2208 224 2160 224
WIRE 2608 224 2608 208
WIRE 3056 224 3056 96
WIRE 3280 224 3056 224
WIRE 3344 224 3280 224
WIRE 2896 240 2896 192
WIRE 2160 256 2160 224
WIRE 2240 256 2240 240
WIRE 3280 256 3280 224
WIRE 816 272 816 256
WIRE 960 272 816 272
WIRE 1216 272 1024 272
WIRE 1328 272 1328 208
WIRE 1328 272 1280 272
WIRE 1408 272 1328 272
WIRE 560 304 560 256
WIRE 816 304 816 272
WIRE 1328 320 1328 272
WIRE 3056 320 3056 224
WIRE 496 352 416 352
WIRE 912 352 880 352
WIRE 2704 368 2704 208
WIRE 2768 368 2704 368
WIRE 2784 368 2768 368
WIRE 2896 368 2896 304
WIRE 2896 368 2832 368
WIRE 2992 368 2896 368
WIRE 3280 368 3280 336
WIRE 1328 416 1328 400
WIRE 1472 416 1472 320
WIRE 1584 416 1472 416
WIRE 560 432 560 400
WIRE 816 432 816 400
WIRE 2896 448 2896 368
WIRE 1472 464 1472 416
WIRE 1584 480 1584 416
WIRE 3056 480 3056 416
WIRE 560 528 560 512
WIRE 672 528 560 528
WIRE 768 528 672 528
WIRE 816 528 816 512
WIRE 816 528 768 528
WIRE 1472 560 1472 544
WIRE 1584 560 1584 544
WIRE 1584 560 1472 560
WIRE 2896 560 2896 528
WIRE 672 576 672 528
WIRE 768 576 768 528
WIRE 1472 592 1472 560
WIRE 672 688 672 656
WIRE 768 688 768 640
WIRE 768 688 672 688
WIRE 672 736 672 688
FLAG 48 256 0
FLAG 160 256 0
FLAG 48 176 Vcc
IOPIN 48 176 In
FLAG 160 176 Vee
IOPIN 160 176 In
FLAG 672 736 Vee
IOPIN 672 736 In
FLAG 816 128 Vcc
IOPIN 816 128 In
FLAG 2160 256 0
FLAG 1328 96 Vcc
IOPIN 1328 96 In
FLAG 1472 64 Vcc
IOPIN 1472 64 In
FLAG 560 128 Vcc
IOPIN 560 128 In
FLAG 272 256 0
FLAG 272 176 Vin
IOPIN 272 176 In
FLAG 416 352 Vin
IOPIN 416 352 In
FLAG -64 272 0
FLAG -64 192 Vin_inv
IOPIN -64 192 In
FLAG 912 352 Vin_inv
IOPIN 912 352 In
FLAG 1328 416 Vee
IOPIN 1328 416 In
FLAG 1472 592 Vee
IOPIN 1472 592 In
FLAG 3344 224 Vout
IOPIN 3344 224 Out
FLAG 3056 -80 Vcc
IOPIN 3056 -80 In
FLAG 2896 -112 Vcc
IOPIN 2896 -112 In
FLAG 3280 368 0
FLAG 2896 560 0
FLAG 3056 480 Vee
IOPIN 3056 480 In
FLAG 2240 336 0
FLAG 2240 80 0
FLAG 2608 304 0
DATAFLAG 1568 192 ""
DATAFLAG 1376 272 ""
DATAFLAG 1472 400 ""
DATAFLAG 816 272 ""
DATAFLAG 672 528 ""
DATAFLAG 3264 224 ""
SYMBOL npn 496 304 R0
SYMATTR InstName Q1
SYMATTR Value BC547B
SYMBOL npn 880 304 M0
SYMATTR InstName Q2
SYMATTR Value BC547B
SYMBOL voltage 48 160 R0
WINDOW 123 0 0 Left 0
WINDOW 39 0 0 Left 0
SYMATTR InstName V1
SYMATTR Value 5
SYMBOL voltage 160 160 R0
WINDOW 123 0 0 Left 0
WINDOW 39 0 0 Left 0
SYMATTR InstName V2
SYMATTR Value -5
SYMBOL res 656 560 R0
SYMATTR InstName R1
SYMATTR Value 5k
SYMBOL res 800 160 R0
SYMATTR InstName Rc1
SYMATTR Value 11.5k
SYMBOL cap 1024 256 R90
WINDOW 0 0 32 VBottom 2
WINDOW 3 32 32 VTop 2
SYMATTR InstName C1
SYMATTR Value 10µ
SYMBOL res 1312 304 R0
SYMATTR InstName R2
SYMATTR Value 15k
SYMBOL res 1312 112 R0
SYMATTR InstName R3
SYMATTR Value 159k
SYMBOL res 1456 64 R0
SYMATTR InstName Rc2
SYMATTR Value 20k
SYMBOL res 1456 448 R0
SYMATTR InstName Re3
SYMATTR Value 1k
SYMBOL npn 1408 224 R0
SYMATTR InstName Q3
SYMATTR Value BC547B
SYMBOL OpAmps\\opamp2 2240 144 R0
SYMATTR InstName U1
SYMATTR Value UA741
SYMBOL cap 2256 -96 R90
WINDOW 0 0 32 VBottom 2
WINDOW 3 32 32 VTop 2
SYMATTR InstName C3
SYMATTR Value 8p
SYMBOL res 2272 16 R90
WINDOW 0 0 56 VBottom 2
WINDOW 3 32 56 VTop 2
SYMATTR InstName R4
SYMATTR Value 1Meg
SYMBOL res 2064 176 R90
WINDOW 0 0 56 VBottom 2
WINDOW 3 32 56 VTop 2
SYMATTR InstName R5
SYMATTR Value 1Meg
SYMBOL cap 1904 176 R90
WINDOW 0 0 32 VBottom 2
WINDOW 3 32 32 VTop 2
SYMATTR InstName C4
SYMATTR Value 8n
SYMBOL voltage 272 160 R0
WINDOW 123 24 44 Left 2
WINDOW 39 0 0 Left 0
SYMATTR Value2 AC 1
SYMATTR InstName V4
SYMATTR Value SINE(0 10m 1k)
SYMBOL cap 1280 256 R90
WINDOW 0 0 32 VBottom 2
WINDOW 3 32 32 VTop 2
SYMATTR InstName C5
SYMATTR Value 10µ
SYMBOL res 544 160 R0
SYMATTR InstName R6
SYMATTR Value 11.5k
SYMBOL cap 2448 192 R90
WINDOW 0 0 32 VBottom 2
WINDOW 3 32 32 VTop 2
SYMATTR InstName C6
SYMATTR Value 10n
SYMBOL res 544 416 R0
SYMATTR InstName Re1
SYMATTR Value 200
SYMBOL res 800 416 R0
SYMATTR InstName Re2
SYMATTR Value 200
SYMBOL voltage -64 176 R0
WINDOW 3 -99 138 Left 2
WINDOW 123 0 0 Left 0
WINDOW 39 0 0 Left 0
SYMATTR Value SINE(0 10m 1k 0 0 180)
SYMATTR InstName V5
SYMBOL cap 752 576 R0
SYMATTR InstName C7
SYMATTR Value 10n
SYMBOL cap 1568 480 R0
SYMATTR InstName C9
SYMATTR Value 10n
SYMBOL npn 2992 0 R0
SYMATTR InstName Q4
SYMATTR Value BC547B
SYMBOL pnp 2992 416 M180
SYMATTR InstName Q5
SYMATTR Value BC557B
SYMBOL diode 2880 128 R0
SYMATTR InstName D1
SYMATTR Value 1N4148
SYMBOL diode 2880 240 R0
SYMATTR InstName D2
SYMATTR Value 1N4148
SYMBOL res 2880 -80 R0
SYMATTR InstName R7
SYMATTR Value 600
SYMBOL res 2880 432 R0
SYMATTR InstName R8
SYMATTR Value 600
SYMBOL res 3264 240 R0
SYMATTR InstName R9
SYMATTR Value 10
SYMBOL voltage 2240 352 R180
WINDOW 0 24 96 Left 2
WINDOW 3 24 16 Left 2
WINDOW 123 0 0 Left 0
WINDOW 39 0 0 Left 0
SYMATTR InstName V3
SYMATTR Value 12
SYMBOL voltage 2240 176 R180
WINDOW 0 24 96 Left 2
WINDOW 3 24 16 Left 2
WINDOW 123 0 0 Left 0
WINDOW 39 0 0 Left 0
SYMATTR InstName V6
SYMATTR Value 12
SYMBOL cap 2832 32 R90
WINDOW 0 0 32 VBottom 2
WINDOW 3 32 32 VTop 2
SYMATTR InstName C2
SYMATTR Value 10n
SYMBOL cap 2832 352 R90
WINDOW 0 0 32 VBottom 2
WINDOW 3 32 32 VTop 2
SYMATTR InstName C8
SYMATTR Value 10n
SYMBOL voltage 2608 208 R0
WINDOW 123 0 0 Left 0
WINDOW 39 0 0 Left 0
SYMATTR InstName V7
SYMATTR Value SINE(0 4 1k)
TEXT -120 400 Left 2 !.tran 10m
TEXT -120 440 Left 2 !.include UA741.301
