Version 4
SHEET 1 1576 680
WIRE 1216 -320 1072 -320
WIRE 1392 -320 1280 -320
WIRE 1072 -224 1072 -320
WIRE 1200 -224 1072 -224
WIRE 1392 -224 1392 -320
WIRE 1392 -224 1280 -224
WIRE 1248 -176 1136 -176
WIRE 1248 -144 1248 -176
WIRE 1136 -112 1136 -176
WIRE 1248 48 1248 -64
WIRE 752 64 672 64
WIRE 976 64 816 64
WIRE 1072 64 1072 -224
WIRE 1072 64 1056 64
WIRE 1216 64 1072 64
WIRE 1392 80 1392 -224
WIRE 1392 80 1280 80
WIRE 1520 80 1392 80
WIRE 1216 96 1056 96
WIRE 672 192 672 64
WIRE 1248 192 1248 112
WIRE 672 336 672 272
WIRE 1056 336 1056 96
WIRE 1248 336 1248 272
WIRE 1520 336 1520 160
FLAG 1248 336 0
FLAG 1520 336 0
FLAG 1056 336 0
FLAG 672 336 0
FLAG 1136 -112 0
FLAG 0 0 0
SYMBOL OpAmps\\opamp2 1248 16 R0
SYMATTR InstName U1
SYMATTR Value UA741
SYMBOL voltage 1248 176 R0
SYMATTR InstName V1
SYMBOL res 1504 64 R0
SYMATTR InstName R1
SYMBOL res 1072 48 R90
WINDOW 0 0 56 VBottom 2
WINDOW 3 32 56 VTop 2
SYMATTR InstName R2
SYMBOL cap 816 48 R90
WINDOW 0 0 32 VBottom 2
WINDOW 3 32 32 VTop 2
SYMATTR InstName C1
SYMBOL voltage 672 176 R0
SYMATTR InstName V2
SYMBOL cap 1280 -336 R90
WINDOW 0 0 32 VBottom 2
WINDOW 3 32 32 VTop 2
SYMATTR InstName C2
SYMBOL res 1296 -240 R90
WINDOW 0 0 56 VBottom 2
WINDOW 3 32 56 VTop 2
SYMATTR InstName R3
SYMBOL voltage 1248 -48 R180
WINDOW 0 24 96 Left 2
WINDOW 3 24 16 Left 2
SYMATTR InstName V3
TEXT -152 272 Left 2 !.include UA741.301
