Version 4
SHEET 1 1544 680
WIRE 688 -480 400 -480
WIRE 976 -480 688 -480
WIRE 976 -384 976 -480
WIRE 400 -352 400 -480
WIRE 688 -352 688 -480
WIRE 976 -352 976 -384
WIRE 976 -176 976 -304
WIRE 688 -144 688 -272
WIRE 1056 -144 688 -144
WIRE 1488 -144 1120 -144
WIRE 688 -80 688 -144
WIRE 1488 0 1488 -144
WIRE 400 16 400 -272
WIRE 576 16 400 16
WIRE 192 64 16 64
WIRE 400 64 400 16
WIRE 400 64 256 64
WIRE 688 112 688 96
WIRE 976 112 688 112
WIRE 16 128 16 64
WIRE 400 128 400 64
WIRE 16 288 16 208
WIRE 400 288 400 208
WIRE 400 288 16 288
WIRE 688 288 688 192
WIRE 688 288 400 288
WIRE 976 288 976 176
WIRE 976 288 688 288
WIRE 1488 288 1488 80
WIRE 1488 288 976 288
WIRE 400 352 400 288
FLAG 400 352 0
FLAG 976 -176 0
SYMBOL voltage 16 112 R0
SYMATTR InstName V1
SYMBOL cap 256 48 R90
WINDOW 0 0 32 VBottom 2
WINDOW 3 32 32 VTop 2
SYMATTR InstName C1
SYMBOL res 384 112 R0
SYMATTR InstName R1
SYMBOL res 384 -368 R0
SYMATTR InstName R2
SYMBOL voltage 976 -400 R0
SYMATTR InstName V2
SYMBOL res 672 -368 R0
SYMATTR InstName R3
SYMBOL cap 1120 -160 R90
WINDOW 0 0 32 VBottom 2
WINDOW 3 32 32 VTop 2
SYMATTR InstName C2
SYMBOL res 1472 -16 R0
SYMATTR InstName R4
SYMBOL res 672 96 R0
SYMATTR InstName R5
SYMBOL cap 960 112 R0
SYMATTR InstName C3
