Version 4
SHEET 1 1556 680
WIRE 688 -480 400 -480
WIRE 976 -480 688 -480
WIRE 976 -384 976 -480
WIRE 400 -352 400 -480
WIRE 688 -352 688 -480
WIRE 976 -352 976 -384
WIRE 976 -176 976 -304
WIRE 688 -144 688 -272
WIRE 1056 -144 688 -144
WIRE 1488 -144 1120 -144
WIRE 688 -48 688 -144
WIRE 624 0 576 0
WIRE 1488 0 1488 -144
WIRE 400 16 400 -272
WIRE 576 16 576 0
WIRE 576 16 400 16
WIRE 192 64 16 64
WIRE 400 64 400 16
WIRE 400 64 256 64
WIRE 688 112 688 48
WIRE 976 112 688 112
WIRE 16 128 16 64
WIRE 400 128 400 64
WIRE 16 288 16 208
WIRE 400 288 400 208
WIRE 400 288 16 288
WIRE 688 288 688 192
WIRE 688 288 400 288
WIRE 976 288 976 176
WIRE 976 288 688 288
WIRE 1488 288 1488 80
WIRE 1488 288 976 288
WIRE 400 352 400 288
FLAG 400 352 0
FLAG 976 -176 0
SYMBOL voltage 16 112 R0
WINDOW 123 24 124 Left 2
WINDOW 39 0 0 Left 0
SYMATTR InstName V1
SYMATTR Value SINE(0 10m 1K)
SYMATTR Value2 AC 1
SYMBOL cap 256 48 R90
WINDOW 0 0 32 VBottom 2
WINDOW 3 32 32 VTop 2
SYMATTR InstName C2
SYMATTR Value 10µ
SYMBOL res 384 112 R0
SYMATTR InstName R4
SYMATTR Value 11.18K
SYMBOL res 384 -368 R0
SYMATTR InstName R3
SYMATTR Value 10.67K
SYMBOL voltage 976 -400 R0
WINDOW 123 0 0 Left 0
WINDOW 39 0 0 Left 0
SYMATTR InstName V2
SYMATTR Value 12V
SYMBOL res 672 -368 R0
SYMATTR InstName R1
SYMATTR Value 1K
SYMBOL cap 1120 -160 R90
WINDOW 0 0 32 VBottom 2
WINDOW 3 32 32 VTop 2
SYMATTR InstName C3
SYMATTR Value 10µ
SYMBOL res 672 96 R0
SYMATTR InstName R2
SYMATTR Value 1.18K
SYMBOL cap 960 112 R0
SYMATTR InstName C4
SYMATTR Value 47µ
SYMBOL npn 624 -48 R0
SYMATTR InstName Q1
SYMATTR Value BC847B
TEXT -16 376 Left 2 ;.tran 10m
TEXT -16 408 Left 2 !.ac dec 10 10 100k
