Version 4
SHEET 1 1520 872
WIRE 592 112 592 96
WIRE 448 176 448 160
WIRE -480 192 -480 144
WIRE -224 192 -224 144
WIRE 592 208 592 192
WIRE 704 208 592 208
WIRE 720 208 704 208
WIRE 592 240 592 208
WIRE -224 288 -224 272
WIRE -128 288 -224 288
WIRE 448 288 448 256
WIRE 448 288 -64 288
WIRE 528 288 448 288
WIRE 448 304 448 288
WIRE -480 320 -480 272
WIRE -224 320 -224 288
WIRE 448 400 448 384
WIRE 592 400 592 336
WIRE -480 448 -480 416
WIRE -224 448 -224 416
WIRE 592 480 592 464
WIRE -480 544 -480 528
WIRE -368 544 -480 544
WIRE -224 544 -224 528
WIRE -224 544 -368 544
WIRE -368 592 -368 544
WIRE 592 608 592 480
WIRE -368 752 -368 672
FLAG -384 -160 0
FLAG -272 -160 0
FLAG -384 -240 Vcc
IOPIN -384 -240 In
FLAG -272 -240 Vee
IOPIN -272 -240 In
FLAG -368 752 Vee
IOPIN -368 752 In
FLAG -224 144 Vcc
IOPIN -224 144 In
FLAG -480 144 Vcc
IOPIN -480 144 In
FLAG -160 -160 0
FLAG -160 -240 Vin
IOPIN -160 -240 In
FLAG -544 368 Vin
IOPIN -544 368 In
FLAG -496 -144 0
FLAG -496 -224 Vin_inv
IOPIN -496 -224 In
FLAG -160 368 0
FLAG 448 160 Vcc
IOPIN 448 160 In
FLAG 592 96 Vcc
IOPIN 592 96 In
FLAG 448 400 Vee
IOPIN 448 400 In
FLAG 592 608 Vee
IOPIN 592 608 In
DATAFLAG -224 288 ""
DATAFLAG -368 544 ""
DATAFLAG 272 288 ""
SYMBOL npn -544 320 R0
SYMATTR InstName Q1
SYMATTR Value BC547B
SYMBOL npn -160 320 M0
SYMATTR InstName Q2
SYMATTR Value BC547B
SYMBOL voltage -384 -256 R0
WINDOW 123 0 0 Left 0
WINDOW 39 0 0 Left 0
SYMATTR InstName V1
SYMATTR Value 5
SYMBOL voltage -272 -256 R0
WINDOW 123 0 0 Left 0
WINDOW 39 0 0 Left 0
SYMATTR InstName V2
SYMATTR Value -5
SYMBOL res -384 576 R0
SYMATTR InstName R1
SYMATTR Value 5k
SYMBOL res -240 176 R0
SYMATTR InstName Rc1
SYMATTR Value 10.92k
SYMBOL cap -64 272 R90
WINDOW 0 0 32 VBottom 2
WINDOW 3 32 32 VTop 2
SYMATTR InstName C1
SYMATTR Value 10µ
SYMBOL voltage -160 -256 R0
WINDOW 123 24 44 Left 2
WINDOW 39 0 0 Left 0
SYMATTR Value2 AC 1
SYMATTR InstName V3
SYMATTR Value SINE(0 10m 20k)
SYMBOL res -496 176 R0
SYMATTR InstName Rc3
SYMATTR Value 10.85k
SYMBOL res -496 432 R0
SYMATTR InstName Re1
SYMATTR Value 59.6
SYMBOL res -240 432 R0
SYMATTR InstName Re2
SYMATTR Value 59.9
SYMBOL voltage -496 -240 R0
WINDOW 3 -99 138 Left 2
WINDOW 123 0 0 Left 0
WINDOW 39 0 0 Left 0
SYMATTR Value SINE(0 10m 20k 0 0 180)
SYMATTR InstName V4
SYMBOL res 432 288 R0
SYMATTR InstName R2
SYMATTR Value 32.37K
SYMBOL res 432 160 R0
SYMATTR InstName R3
SYMATTR Value 304.1K
SYMBOL res 576 96 R0
SYMATTR InstName Rc2
SYMATTR Value 18.15K
SYMBOL npn 528 240 R0
SYMATTR InstName Q3
SYMATTR Value BC547B
SYMBOL res 576 384 R0
SYMATTR InstName R4
SYMATTR Value 1.254k
SYMBOL cap 768 192 R90
WINDOW 0 0 32 VBottom 2
WINDOW 3 32 32 VTop 2
SYMATTR InstName C2
SYMATTR Value 10µ
TEXT 64 -104 Left 2 !.include UA741.301
TEXT 80 -152 Left 2 !.four 1KHz 10 10 V(Vout)
TEXT 72 -192 Left 2 !.tran 0.5m
TEXT 72 -72 Left 2 !.include tip31a.lib
TEXT 72 -48 Left 2 !.include tip32a.lib
TEXT 80 -240 Left 2 ;.ac dec 10 10m 100k
TEXT -640 856 Left 2 !;tran 10m
