Version 4
SHEET 1 880 680
WIRE 48 -112 48 -144
WIRE 48 -112 -96 -112
WIRE 208 -112 48 -112
WIRE -96 -80 -96 -112
WIRE 208 -32 208 -112
WIRE -96 16 -96 0
WIRE 144 16 -96 16
WIRE -96 32 -96 16
WIRE -256 128 -384 128
WIRE -96 128 -96 96
WIRE -96 128 -192 128
WIRE 208 128 208 64
WIRE 256 128 208 128
WIRE 352 128 320 128
WIRE 384 128 352 128
WIRE -96 160 -96 128
WIRE 352 160 352 128
WIRE -384 176 -384 128
WIRE 208 176 208 128
WIRE 144 224 -96 224
WIRE -96 256 -96 224
WIRE 352 272 352 240
WIRE -96 368 -96 336
WIRE 208 368 208 272
FLAG -544 -128 0
FLAG -544 -208 Vcc
IOPIN -544 -208 In
FLAG 48 -144 Vcc
IOPIN 48 -144 In
FLAG 208 368 0
FLAG -96 368 0
FLAG 352 272 0
FLAG 384 128 Vout
IOPIN 384 128 Out
FLAG -384 256 0
SYMBOL diode -112 32 R0
SYMATTR InstName D1
SYMATTR Value 1N4148
SYMBOL cap -192 112 R90
WINDOW 0 0 32 VBottom 2
WINDOW 3 32 32 VTop 2
SYMATTR InstName C1
SYMBOL res -112 -96 R0
SYMATTR InstName R1
SYMBOL res -112 240 R0
SYMATTR InstName R2
SYMBOL voltage -544 -224 R0
WINDOW 123 0 0 Left 0
WINDOW 39 0 0 Left 0
SYMATTR InstName V1
SYMATTR Value 5
SYMBOL npn 144 -32 R0
SYMATTR InstName Q1
SYMATTR Value BC547B
SYMBOL pnp 144 176 R0
SYMATTR InstName Q2
SYMATTR Value 2N2907
SYMBOL cap 320 112 R90
WINDOW 0 0 32 VBottom 2
WINDOW 3 32 32 VTop 2
SYMATTR InstName C2
SYMATTR Value 994.7µ
SYMBOL res 336 144 R0
SYMATTR InstName Load
SYMATTR Value 8
SYMBOL voltage -384 160 R0
WINDOW 123 24 124 Left 2
WINDOW 39 0 0 Left 0
SYMATTR InstName V2
SYMATTR Value SINE(0 1 1k)
SYMATTR Value2 AC 1
SYMBOL diode -112 160 R0
WINDOW 3 37 39 Left 2
SYMATTR InstName D2
SYMATTR Value 1N4148
