Version 4
SHEET 1 880 680
WIRE 48 -208 48 -256
WIRE 208 -144 208 -224
WIRE 48 -96 48 -128
WIRE 144 -96 48 -96
WIRE 48 -16 48 -96
WIRE 48 64 48 48
WIRE 48 64 -592 64
WIRE 208 80 208 -48
WIRE 432 80 208 80
WIRE 496 80 432 80
WIRE 48 96 48 64
WIRE 432 112 432 80
WIRE -592 176 -592 64
WIRE 208 176 208 80
WIRE 48 224 48 160
WIRE 144 224 48 224
WIRE 432 224 432 192
WIRE 48 304 48 224
WIRE 208 336 208 272
WIRE 48 416 48 384
FLAG -544 -128 0
FLAG -544 -208 Vcc
IOPIN -544 -208 In
FLAG 496 80 Vout
IOPIN 496 80 Out
FLAG -592 256 0
FLAG -432 -128 0
FLAG -432 -208 -Vcc
IOPIN -432 -208 In
FLAG 208 -224 Vcc
IOPIN 208 -224 In
FLAG 48 -256 Vcc
IOPIN 48 -256 In
FLAG 432 224 0
FLAG 48 416 0
FLAG 208 336 -Vcc
IOPIN 208 336 In
DATAFLAG 416 80 ""
SYMBOL voltage -544 -224 R0
WINDOW 123 0 0 Left 0
WINDOW 39 0 0 Left 0
SYMATTR InstName V1
SYMATTR Value 5
SYMBOL npn 144 -144 R0
SYMATTR InstName Q1
SYMATTR Value BC547B
SYMBOL voltage -592 160 R0
WINDOW 123 24 124 Left 2
WINDOW 39 0 0 Left 0
SYMATTR Value2 AC 1
SYMATTR InstName V2
SYMATTR Value SINE(0 100m 1k)
SYMBOL pnp 144 272 M180
SYMATTR InstName Q2
SYMATTR Value BC557B
SYMBOL voltage -432 -224 R0
WINDOW 123 0 0 Left 0
WINDOW 39 0 0 Left 0
SYMATTR InstName V3
SYMATTR Value -5
SYMBOL diode 32 -16 R0
SYMATTR InstName D1
SYMATTR Value 1N4148
SYMBOL diode 32 96 R0
SYMATTR InstName D2
SYMATTR Value 1N4148
SYMBOL res 32 -224 R0
SYMATTR InstName R2
SYMATTR Value 100
SYMBOL res 32 288 R0
SYMATTR InstName R3
SYMATTR Value 100
SYMBOL res 416 96 R0
SYMATTR InstName R1
SYMATTR Value 10
TEXT -616 392 Left 2 !.tran 10m
