Version 4
SHEET 1 1384 680
WIRE 352 16 352 0
WIRE 352 16 128 16
WIRE 576 16 352 16
WIRE 128 48 128 16
WIRE 576 64 576 16
WIRE 576 160 576 144
WIRE 688 160 576 160
WIRE 128 176 128 128
WIRE 576 176 576 160
WIRE 64 224 -32 224
WIRE 720 224 640 224
WIRE -32 272 -32 224
WIRE 720 288 720 224
WIRE 128 304 128 272
WIRE 336 304 128 304
WIRE 576 304 576 272
WIRE 576 304 336 304
WIRE -32 368 -32 352
WIRE 336 368 336 304
WIRE 336 464 336 448
WIRE 336 560 336 544
FLAG -32 368 0
FLAG 720 368 0
FLAG 352 -80 0
FLAG 688 160 Vo
IOPIN 688 160 Out
FLAG 336 560 0
SYMBOL npn 64 176 R0
SYMATTR InstName Q1
SYMATTR Value BC547B
SYMBOL voltage -32 256 R0
WINDOW 123 24 124 Left 2
WINDOW 39 0 0 Left 0
SYMATTR InstName V1
SYMATTR Value SINE(0 15m 500)
SYMATTR Value2 AC 1
SYMBOL res 112 32 R0
SYMATTR InstName RC1
SYMATTR Value 1k
SYMBOL voltage 352 16 R180
WINDOW 0 24 96 Left 2
WINDOW 3 24 16 Left 2
WINDOW 123 0 0 Left 0
WINDOW 39 0 0 Left 0
SYMATTR InstName Vcc
SYMATTR Value 2.5
SYMBOL res 560 48 R0
SYMATTR InstName RC2
SYMATTR Value 1.2k
SYMBOL npn 640 176 M0
SYMATTR InstName Q2
SYMATTR Value BC547B
SYMBOL voltage 720 272 R0
WINDOW 123 24 124 Left 2
WINDOW 39 0 0 Left 0
SYMATTR InstName V2
SYMATTR Value SINE(0 15m 500 0 0 180)
SYMATTR Value2 AC 1
SYMBOL res 320 352 R0
SYMATTR InstName Ree
SYMATTR Value 1k
SYMBOL voltage 336 448 R0
WINDOW 123 0 0 Left 0
WINDOW 39 0 0 Left 0
SYMATTR InstName V3
SYMATTR Value -2.5
TEXT 62 504 Left 2 !.op
TEXT 832 152 Left 2 !.tran 10m
